8
Properties=species:S:1:pos:R:3:Z:I:1 pbc="F F F"
Li      -1.38909018       0.00000000       0.00000000        3 
Li       1.38909018       0.00000000       0.00000000        3 
X      -1.38975573       0.00000000       0.00000000        0 
X      -0.05505195       0.00000000       0.00000000        0 
X       1.38970942       0.00000000       0.00000000        0 
He       1.38975577       0.00000000       0.00000000        2 
He       0.05497302       0.00000000       0.00000000        2 
He      -1.38970928       0.00000000       0.00000000        2 
8
Properties=species:S:1:pos:R:3:Z:I:1 pbc="F F F"
Li      -1.46846676       0.00000000       0.00000000        3 
Li       1.46846676       0.00000000       0.00000000        3 
X      -1.46944580       0.00000000       0.00000000        0 
X      -0.13906696       0.00000000       0.00000000        0 
X       1.46954978       0.00000000       0.00000000        0 
He       1.46944591       0.00000000       0.00000000        2 
He       0.13899357       0.00000000       0.00000000        2 
He      -1.46954978       0.00000000       0.00000000        2 
8
Properties=species:S:1:pos:R:3:Z:I:1 pbc="F F F"
Li      -1.57430220       0.00000000       0.00000000        3 
Li       1.57430220       0.00000000       0.00000000        3 
X      -1.57555207       0.00000000       0.00000000        0 
X      -0.30249110       0.00000000       0.00000000        0 
X       1.57544626       0.00000000       0.00000000        0 
He       1.57555209       0.00000000       0.00000000        2 
He       0.30239800       0.00000000       0.00000000        2 
He      -1.57544621       0.00000000       0.00000000        2 
8
Properties=species:S:1:pos:R:3:Z:I:1 pbc="F F F"
Li      -1.69336707       0.00000000       0.00000000        3 
Li       1.69336707       0.00000000       0.00000000        3 
X      -1.69673637       0.00000000       0.00000000        0 
X      -0.00062067       0.00000000       0.00000000        0 
X       1.69674785       0.00000000       0.00000000        0 
He       1.69673874       0.00000000       0.00000000        2 
He       0.00074235       0.00000000       0.00000000        2 
He      -1.69675061       0.00000000       0.00000000        2 
8
Properties=species:S:1:pos:R:3:Z:I:1 pbc="F F F"
Li      -1.82566138       0.00000000       0.00000000        3 
Li       1.82566138       0.00000000       0.00000000        3 
X      -1.82857459       0.00000000       0.00000000        0 
X      -0.00008685       0.00000000       0.00000000        0 
X       1.82864198       0.00000000       0.00000000        0 
He       1.82857607       0.00000000       0.00000000        2 
He       0.00019230       0.00000000       0.00000000        2 
He      -1.82864523       0.00000000       0.00000000        2 
8
Properties=species:S:1:pos:R:3:Z:I:1 pbc="F F F"
Li      -1.97118511       0.00000000       0.00000000        3 
Li       1.97118511       0.00000000       0.00000000        3 
X      -1.97381468       0.00000000       0.00000000        0 
X      -0.00584514       0.00000000       0.00000000        0 
X       1.97375603       0.00000000       0.00000000        0 
He       1.97381626       0.00000000       0.00000000        2 
He       0.00588099       0.00000000       0.00000000        2 
He      -1.97375736       0.00000000       0.00000000        2 
8
Properties=species:S:1:pos:R:3:Z:I:1 pbc="F F F"
Li      -2.12993827       0.00000000       0.00000000        3 
Li       2.12993827       0.00000000       0.00000000        3 
X      -2.13200214       0.00000000       0.00000000        0 
X       0.00304033       0.00000000       0.00000000        0 
X       2.13202740       0.00000000       0.00000000        0 
He       2.13200216       0.00000000       0.00000000        2 
He      -0.00310482       0.00000000       0.00000000        2 
He      -2.13203191       0.00000000       0.00000000        2 
8
Properties=species:S:1:pos:R:3:Z:I:1 pbc="F F F"
Li      -2.30192087       0.00000000       0.00000000        3 
Li       2.30192087       0.00000000       0.00000000        3 
X      -2.30356640       0.00000000       0.00000000        0 
X      -0.00342602       0.00000000       0.00000000        0 
X       2.30377356       0.00000000       0.00000000        0 
He       2.30356702       0.00000000       0.00000000        2 
He       0.00322919       0.00000000       0.00000000        2 
He      -2.30377273       0.00000000       0.00000000        2 
8
Properties=species:S:1:pos:R:3:Z:I:1 pbc="F F F"
Li      -2.48713289       0.00000000       0.00000000        3 
Li       2.48713289       0.00000000       0.00000000        3 
X      -2.48802396       0.00000000       0.00000000        0 
X      -1.23827520       0.00000000       0.00000000        0 
X       2.48774726       0.00000000       0.00000000        0 
He       2.48802383       0.00000000       0.00000000        2 
He       1.23817488       0.00000000       0.00000000        2 
He      -2.48774717       0.00000000       0.00000000        2 
8
Properties=species:S:1:pos:R:3:Z:I:1 pbc="F F F"
Li      -2.68557434       0.00000000       0.00000000        3 
Li       2.68557434       0.00000000       0.00000000        3 
X      -2.68655801       0.00000000       0.00000000        0 
X      -1.42581327       0.00000000       0.00000000        0 
X       2.68624315       0.00000000       0.00000000        0 
He       2.68655772       0.00000000       0.00000000        2 
He       1.42572412       0.00000000       0.00000000        2 
He      -2.68624278       0.00000000       0.00000000        2 
8
Properties=species:S:1:pos:R:3:Z:I:1 pbc="F F F"
Li      -2.89724523       0.00000000       0.00000000        3 
Li       2.89724523       0.00000000       0.00000000        3 
X      -2.89807611       0.00000000       0.00000000        0 
X      -1.62319549       0.00000000       0.00000000        0 
X       2.89777863       0.00000000       0.00000000        0 
He       2.89807607       0.00000000       0.00000000        2 
He       1.62311821       0.00000000       0.00000000        2 
He      -2.89777798       0.00000000       0.00000000        2 
8
Properties=species:S:1:pos:R:3:Z:I:1 pbc="F F F"
Li      -3.12214554       0.00000000       0.00000000        3 
Li       3.12214554       0.00000000       0.00000000        3 
X      -3.12281837       0.00000000       0.00000000        0 
X      -1.84144526       0.00000000       0.00000000        0 
X       3.12268017       0.00000000       0.00000000        0 
He       3.12281850       0.00000000       0.00000000        2 
He       1.84137265       0.00000000       0.00000000        2 
He      -3.12267979       0.00000000       0.00000000        2 
8
Properties=species:S:1:pos:R:3:Z:I:1 pbc="F F F"
Li      -3.36027529       0.00000000       0.00000000        3 
Li       3.36027529       0.00000000       0.00000000        3 
X      -3.36099638       0.00000000       0.00000000        0 
X      -2.07963113       0.00000000       0.00000000        0 
X       3.36080326       0.00000000       0.00000000        0 
He       3.36099656       0.00000000       0.00000000        2 
He       2.07955931       0.00000000       0.00000000        2 
He      -3.36080300       0.00000000       0.00000000        2 
8
Properties=species:S:1:pos:R:3:Z:I:1 pbc="F F F"
Li      -3.61163446       0.00000000       0.00000000        3 
Li       3.61163446       0.00000000       0.00000000        3 
X      -3.61244684       0.00000000       0.00000000        0 
X      -2.33504355       0.00000000       0.00000000        0 
X       3.61220497       0.00000000       0.00000000        0 
He       3.61244703       0.00000000       0.00000000        2 
He       2.33496989       0.00000000       0.00000000        2 
He      -3.61220473       0.00000000       0.00000000        2 
8
Properties=species:S:1:pos:R:3:Z:I:1 pbc="F F F"
Li      -3.87622307       0.00000000       0.00000000        3 
Li       3.87622307       0.00000000       0.00000000        3 
X      -3.87708844       0.00000000       0.00000000        0 
X      -2.60422303       0.00000000       0.00000000        0 
X       3.87682377       0.00000000       0.00000000        0 
He       3.87708865       0.00000000       0.00000000        2 
He       2.60414619       0.00000000       0.00000000        2 
He      -3.87682347       0.00000000       0.00000000        2 
8
Properties=species:S:1:pos:R:3:Z:I:1 pbc="F F F"
Li      -4.15404110       0.00000000       0.00000000        3 
Li       4.15404110       0.00000000       0.00000000        3 
X      -4.15496665       0.00000000       0.00000000        0 
X      -2.88760838       0.00000000       0.00000000        0 
X       4.15468616       0.00000000       0.00000000        0 
He       4.15496689       0.00000000       0.00000000        2 
He       2.88752754       0.00000000       0.00000000        2 
He      -4.15468588       0.00000000       0.00000000        2 
8
Properties=species:S:1:pos:R:3:Z:I:1 pbc="F F F"
Li      -4.44508857       0.00000000       0.00000000        3 
Li       4.44508857       0.00000000       0.00000000        3 
X      -4.44611354       0.00000000       0.00000000        0 
X      -3.18395619       0.00000000       0.00000000        0 
X       4.44575073       0.00000000       0.00000000        0 
He       4.44611382       0.00000000       0.00000000        2 
He       3.18387162       0.00000000       0.00000000        2 
He      -4.44575052       0.00000000       0.00000000        2 
8
Properties=species:S:1:pos:R:3:Z:I:1 pbc="F F F"
Li      -4.76259490       0.00000000       0.00000000        3 
Li       4.76259490       0.00000000       0.00000000        3 
X      -4.76367759       0.00000000       0.00000000        0 
X      -3.50555811       0.00000000       0.00000000        0 
X       4.76322997       0.00000000       0.00000000        0 
He       4.76367793       0.00000000       0.00000000        2 
He       3.50547066       0.00000000       0.00000000        2 
He      -4.76322979       0.00000000       0.00000000        2 
8
Properties=species:S:1:pos:R:3:Z:I:1 pbc="F F F"
Li      -5.15947780       0.00000000       0.00000000        3 
Li       5.15947780       0.00000000       0.00000000        3 
X      -5.16043260       0.00000000       0.00000000        0 
X      -3.90521372       0.00000000       0.00000000        0 
X       5.16021075       0.00000000       0.00000000        0 
He       5.16043292       0.00000000       0.00000000        2 
He       3.90512434       0.00000000       0.00000000        2 
He      -5.16021047       0.00000000       0.00000000        2 
8
Properties=species:S:1:pos:R:3:Z:I:1 pbc="F F F"
Li      -5.68865501       0.00000000       0.00000000        3 
Li       5.68865501       0.00000000       0.00000000        3 
X      -5.68960920       0.00000000       0.00000000        0 
X      -4.43565031       0.00000000       0.00000000        0 
X       5.68933647       0.00000000       0.00000000        0 
He       5.68960952       0.00000000       0.00000000        2 
He       4.43555982       0.00000000       0.00000000        2 
He      -5.68933620       0.00000000       0.00000000        2 
8
Properties=species:S:1:pos:R:3:Z:I:1 pbc="F F F"
Li      -6.35012653       0.00000000       0.00000000        3 
Li       6.35012653       0.00000000       0.00000000        3 
X      -6.35109965       0.00000000       0.00000000        0 
X      -5.09736973       0.00000000       0.00000000        0 
X       6.35077144       0.00000000       0.00000000        0 
He       6.35109996       0.00000000       0.00000000        2 
He       5.09727878       0.00000000       0.00000000        2 
He      -6.35077118       0.00000000       0.00000000        2 
8
Properties=species:S:1:pos:R:3:Z:I:1 pbc="F F F"
Li      -7.14389234       0.00000000       0.00000000        3 
Li       7.14389234       0.00000000       0.00000000        3 
X      -7.14476964       0.00000000       0.00000000        0 
X      -5.89112736       0.00000000       0.00000000        0 
X       7.14448544       0.00000000       0.00000000        0 
He       7.14476982       0.00000000       0.00000000        2 
He       5.89103625       0.00000000       0.00000000        2 
He      -7.14448514       0.00000000       0.00000000        2 
8
Properties=species:S:1:pos:R:3:Z:I:1 pbc="F F F"
Li      -8.20224676       0.00000000       0.00000000        3 
Li       8.20224676       0.00000000       0.00000000        3 
X      -8.20315046       0.00000000       0.00000000        0 
X      -6.94938242       0.00000000       0.00000000        0 
X       8.20282611       0.00000000       0.00000000        0 
He       8.20315063       0.00000000       0.00000000        2 
He       6.94929120       0.00000000       0.00000000        2 
He      -8.20282582       0.00000000       0.00000000        2 
8
Properties=species:S:1:pos:R:3:Z:I:1 pbc="F F F"
Li      -9.78977840       0.00000000       0.00000000        3 
Li       9.78977840       0.00000000       0.00000000        3 
X      -9.79070055       0.00000000       0.00000000        0 
X      -8.53684788       0.00000000       0.00000000        0 
X       9.79034542       0.00000000       0.00000000        0 
He       9.79070072       0.00000000       0.00000000        2 
He       8.53675658       0.00000000       0.00000000        2 
He      -9.79034514       0.00000000       0.00000000        2 
8
Properties=species:S:1:pos:R:3:Z:I:1 pbc="F F F"
Li     -11.90648724       0.00000000       0.00000000        3 
Li      11.90648724       0.00000000       0.00000000        3 
X     -11.90741994       0.00000000       0.00000000        0 
X     -10.65352603       0.00000000       0.00000000        0 
X      11.90704625       0.00000000       0.00000000        0 
He      11.90742011       0.00000000       0.00000000        2 
He      10.65343468       0.00000000       0.00000000        2 
He     -11.90704598       0.00000000       0.00000000        2 
