15

C      -0.00000021       0.00000100       0.00001108        
H       0.65999676       0.65999542       0.66000477        
H      -0.65998690      -0.65998814       0.65998786        
H       0.65999990      -0.66000818      -0.65999834        
H      -0.66001039       0.66000202      -0.66000179        
He      -0.00000044       0.00000180       0.00000273       
X      -0.00000005       0.00000130       0.00000692        
He       0.51817871       0.51817458       0.51817713       
X       0.51818581       0.51818121       0.51817751        
He      -0.51816792      -0.51817229       0.51817058       
X      -0.51819337      -0.51819812       0.51819350        
He       0.51818796      -0.51818809      -0.51818482       
X       0.51817494      -0.51817126      -0.51817387        
He      -0.51818986       0.51818996      -0.51819095       
X      -0.51817496       0.51817879      -0.51818231        
