6
created by hand
Li -0.036595 0.000000 0.000000
H 3.152663 0.000000 0.000000
X -0.046221 0.000000 0.000000
He -0.046221 0.000000 0.000000
X 2.838187 0.000000 0.000000
He 2.838187 0.000000 0.000000
6
created by hand
Li -0.040444 0.000000 0.000000
H 3.150663 0.000000 0.000000
X -0.050096 0.000000 0.000000
He -0.050096 0.000000 0.000000
X 2.844986 0.000000 0.000000
He 2.844986 0.000000 0.000000
