 30
FO positions (X) together with structure atoms
He -45.00000000 +0.00000000 +0.00000000
He -35.00000000 +0.00000000 +0.00000000
He -25.00000000 +0.00000000 +0.00000000
He -15.00000000 +0.00000000 +0.00000000
He -5.00000000 +0.00000000 +0.00000000
He +5.00000000 +0.00000000 +0.00000000
He +15.00000000 +0.00000000 +0.00000000
He +25.00000000 +0.00000000 +0.00000000
He +35.00000000 +0.00000000 +0.00000000
He +45.00000000 +0.00000000 +0.00000000
X -45.15877480 -0.00003618 -0.00029069
X -35.15876851 +0.00058861 +0.00043945
X -25.15876533 +0.00002206 +0.00005436
X -15.15875748 -0.00094897 +0.00022859
X -5.15862838 +0.00618510 +0.00145814
X +4.95128595 -0.14365226 -0.04683272
X +15.09171901 +0.12294412 +0.04094234
X +25.15818275 -0.01272921 -0.00475434
X +35.15877013 +0.00010446 +0.00011243
X +45.15877369 +0.00065588 -0.00008967
He -44.84126880 -0.00010713 -0.00011607
He -34.84126387 +0.00005089 +0.00002818
He -24.84125984 +0.00010466 +0.00050856
He -14.84125463 +0.00028748 +0.00028016
He -4.84124933 -0.00000683 +0.00015593
He +4.84125023 +0.00018854 -0.00052358
He +14.84125430 -0.00022434 -0.00008138
He +24.84125935 -0.00005730 -0.00033565
He +34.84126394 +0.00003081 -0.00016595
He +44.84126880 -0.00015546 +0.00002928
